
     RDKit          3D

  8  8  0  0  0  0  0  0  0  0999 V2000
   -7.9010   17.6490   66.6960 C   0  0  0  0  0  0  0  0  0  0  0  0
   -8.9110   17.8490   65.7030 O   0  0  0  0  0  0  0  0  0  0  0  0
   -5.8100   18.9970   67.2590 C   0  0  0  0  0  0  0  0  0  0  0  0
   -5.1380   20.2050   67.4390 C   0  0  0  0  0  0  0  0  0  0  0  0
   -5.8150   21.4140   67.2570 C   0  0  0  0  0  0  0  0  0  0  0  0
   -7.1560   21.4060   66.8980 C   0  0  0  0  0  0  0  0  0  0  0  0
   -7.8310   20.2010   66.7150 C   0  0  0  0  0  0  0  0  0  0  0  0
   -7.1530   18.9940   66.8960 C   0  0  0  0  0  0  0  0  0  0  0  0
  2  1  1  0
  4  3  2  0
  5  4  1  0
  6  5  2  0
  7  6  1  0
  8  7  2  0
  8  3  1  0
  8  1  1  0
M  END
